LAMMPS (29 Oct 2020)
# 2d NEMD simulation

units		lj
atom_style	atomic
dimension	2

lattice		sq2 0.8442
Lattice spacing in x,y,z = 1.5391903 1.5391903 1.5391903
region		box prism 0 20 0 16 -0.5 0.5 0 0 0
create_box	2 box
Created triclinic box = (0.0000000 0.0000000 -0.76959516) to (30.783806 24.627045 0.76959516) with tilt (0.0000000 0.0000000 0.0000000)
create_atoms	1 box
Created 640 atoms
mass		* 1.0

velocity        all zero linear

region		slice block 8 12 INF INF INF INF
set		region slice type 2
Setting atom values ...
  144 settings made for type

pair_style	lj/cut 2.5
pair_coeff	* * 1.0 1.0 1.0

neighbor	0.3 bin
neigh_modify	delay 0 every 1

fix		1 all nvt/sllod temp 1.0 1.0 1.0 tchain 1
fix		2 all deform 1 xy erate 0.01 remap v

dump		1 all custom 1000 dump.nemd1 id type x y z vx vy vz

#dump		2 all image 1000 image.*.jpg type type adiam 1.2
#dump_modify	2 pad 5

#dump		3 all movie 1000 movie.mpg type type adiam 1.2
#dump_modify	3 pad 5

thermo		1000

run		50000
  update every 1 steps, delay 0 steps, check yes
Step Temp E_pair E_mol TotEng Press Volume
0            0            0            0            0            0    758.11419
Averages over the last 26 of 51 rows, steps 25000 to 50000:
Temp E_pair E_mol TotEng Press Volume
0.957185 0.26001 0 1.2157 6.02445 758.114
Loop time of 2.17514 on 2 procs for 50000 steps with 640 atoms
